Adding a title line to the paper
===============================

ANother intro section

aWow nice papers
Very good.
change

Method1 : dont do shock of monkey

New line.
