aWow nice papers
Very good.
change

Method 1: shock the monkey
New line.
