Wow nice papers
Very good.
change

New line.
